Version 4
SHEET 1 2640 680
WIRE 1056 -160 1056 -176
WIRE 1152 -160 1056 -160
WIRE 1056 -128 1056 -160
WIRE 736 -112 736 -176
WIRE 736 -16 736 -32
WIRE 736 -16 208 -16
WIRE 832 -16 736 -16
WIRE 560 64 544 64
WIRE 832 64 832 -16
WIRE 208 96 208 -16
WIRE 432 112 272 112
WIRE 544 128 544 64
WIRE 544 128 496 128
WIRE 432 144 384 144
WIRE 832 160 736 160
WIRE 384 192 384 144
WIRE 624 192 624 112
WIRE 768 192 768 112
WIRE 768 192 624 192
WIRE 272 240 272 112
WIRE 736 240 736 160
WIRE 736 240 272 240
WIRE 512 304 384 304
WIRE 672 304 592 304
WIRE 208 336 208 176
WIRE 384 336 384 304
WIRE 384 336 208 336
WIRE 672 368 672 304
WIRE 736 368 736 320
WIRE 736 368 672 368
WIRE 736 384 736 368
WIRE 384 416 384 336
WIRE 432 416 384 416
WIRE 672 432 496 432
WIRE 368 448 304 448
WIRE 432 448 368 448
WIRE 368 464 368 448
FLAG 464 96 v+
FLAG 464 160 v-
FLAG 1152 -160 0
FLAG 1056 -256 V+
FLAG 1056 -48 V-
FLAG 384 192 0
FLAG 736 480 V-
FLAG 464 464 V-
FLAG 464 400 v+
FLAG 736 -176 0
FLAG 368 544 0
FLAG 624 16 v+
FLAG 304 528 0
SYMBOL Opamps\\opamp2 464 368 R0
SYMATTR InstName U1
SYMATTR Value LM6171_SN
SYMBOL Opamps\\opamp2 464 64 R0
WINDOW 3 10 137 Left 2
SYMATTR Value LM6171_SN
SYMATTR InstName U4
SYMBOL voltage 1056 -272 R0
WINDOW 123 0 0 Left 2
WINDOW 39 0 0 Left 2
SYMATTR InstName V1
SYMATTR Value 9
SYMBOL voltage 1056 -144 R0
WINDOW 123 0 0 Left 2
WINDOW 39 0 0 Left 2
SYMATTR InstName V2
SYMATTR Value 9
SYMBOL npn 768 64 R0
SYMATTR InstName Q1
SYMATTR Value KSC2690
SYMBOL pnp 672 480 M180
SYMATTR InstName Q3
SYMATTR Value KSA1220
SYMBOL res 720 224 R0
SYMATTR InstName R1
SYMATTR Value 3
SYMBOL voltage 736 -16 R180
WINDOW 123 0 0 Left 2
WINDOW 39 -118 -3 Left 2
SYMATTR InstName V3
SYMATTR Value 1
SYMBOL voltage 304 432 R0
WINDOW 3 24 44 Left 2
WINDOW 123 0 0 Left 2
WINDOW 39 0 0 Left 2
SYMATTR Value 0
SYMATTR InstName V4
SYMBOL npn 560 16 R0
SYMATTR InstName Q2
SYMATTR Value KSC2690
SYMBOL res 352 448 R0
SYMATTR InstName R2
SYMATTR Value 1k
SYMBOL res 608 288 R90
WINDOW 0 0 56 VBottom 2
WINDOW 3 32 56 VTop 2
SYMATTR InstName R3
SYMATTR Value 25k
SYMBOL res 192 80 R0
SYMATTR InstName R4
SYMATTR Value 25k
TEXT -416 -376 Left 2 !.op
TEXT -416 -464 Left 2 !.include LM6171_SN.lib
TEXT -416 -408 Left 2 !;tran 0 2u 0 0.1u
TEXT -416 -440 Left 2 !.include sihfz44.lib
TEXT -416 -488 Left 2 !.include SSM6P49NU.lib
TEXT 1664 -400 Left 2 !.MODEL KSA1220 PNP ( \n\n+  IS    =4.7863E-13      \n\n+  BF    =289.3\n\n+  NF    =1.0 \n\n+  BR    =9.76\n\n+  NR    =1.006\n\n*+ IBC   =4.7863E-13\n\n*+ IBC   =4.7863E-13\n\n+  ISE   =5.2481E-12\n\n+  NE    =2\n\n+  ISC   =2.4909E-11\n\n+  NC    =1.5\n\n+  VAF   =98.5\n\n+  VAR   =6.7\n\n+  IKF   =2.7061\n\n+  IKR   =0.0759\n\n+  RB    =2.26\n\n+  RBM   =0.2308\n\n+  IRB   =0.001\n\n+  RE    =0.1908\n\n+  RC    =1.1748\n\n+  QCO   =0.02\n\n+  RCO   =3.9811\n\n+  VO    =11.078\n\n+  GAMMA =5.01187E-8\n\n+  CJE   =3.4786E-10\n\n+  VJE   =0.9575\n\n+  MJE   =0.4694\n\n+  FC    =0.5\n\n+  CJC   =1.1224E-10\n\n+  VJC   =0.5761\n\n+  MJC   =0.4365\n\n+  XCJC  =0.4955   \n\n+  XTB   =1.7978    \n\n+  EG    =1.2255 \n\n+  XTI   =3.0         )
TEXT 2016 -408 Left 2 !.MODEL KSC2690 NPN\n\n+  IS    =1.7783E-13      \n\n+  BF    =132.5\n\n+  NF    =1.0 \n\n+  BR    =8.495\n\n+  NR    =1.005\n\n*+ IBC   =1.7783E-13 \n\n*+ IBC   =1.7783E-13 \n\n+  ISE   =1.9953E-13\n\n+  NE    =1.5\n\n+  ISC   =1.5849E-9\n\n+  NC    =1.98\n\n+  VAF   =580.75\n\n+  VAR   =18.15\n\n+  IKF   =4.0271\n\n+  IKR   =0.0120\n\n+  RB    =2.98\n\n+  RBM   =0.001\n\n+  IRB   =0.6396\n\n+  RE    =0.0909\n\n+  RC    =1.4705\n\n+  QCO   =0.68\n\n+  RCO   =3.6239\n\n+  VO    =6.587\n\n+  GAMMA =2.8216E-7\n\n+  CJE   =4.0082E-10\n\n+  VJE   =0.6696\n\n+  MJE   =0.3296\n\n+  FC    =0.5\n\n+  CJC   =6.0404E-11\n\n+  VJC   =0.5\n\n+  MJC   =0.4266\n\n+  XCJC  =0.4955   \n\n+  XTB   =1.2590    \n\n+  EG    =1.2277 \n\n+  XTI   =3.0         \n\n*---------------------------------------------------------\n\n* FAIRCHILD    CASE: TO-126   PID:KSC2690A-O\n\n* 2000-03-30 CREATION
