Version 4
SHEET 1 2920 2028
WIRE -160 -400 -240 -400
WIRE -32 -400 -160 -400
WIRE 96 -400 -32 -400
WIRE 336 -400 96 -400
WIRE 560 -400 336 -400
WIRE 560 -384 560 -400
WIRE -240 -368 -240 -400
WIRE -160 -368 -160 -400
WIRE 96 -320 96 -400
WIRE -160 -272 -160 -288
WIRE 32 -272 -160 -272
WIRE -160 -256 -160 -272
WIRE 336 -160 336 -400
WIRE 336 -160 304 -160
WIRE -160 -144 -160 -176
WIRE 96 -144 96 -224
WIRE 240 -144 96 -144
WIRE 336 -128 304 -128
WIRE -336 -96 -496 -96
WIRE -240 -96 -240 -288
WIRE -240 -96 -256 -96
WIRE -224 -96 -240 -96
WIRE -160 -32 -160 -48
WIRE 96 80 96 -144
WIRE 336 112 336 -128
WIRE 368 112 336 112
WIRE -160 128 -160 112
WIRE 32 128 -160 128
WIRE 592 128 432 128
WIRE 368 144 336 144
WIRE -160 176 -160 128
WIRE 592 176 592 128
WIRE -64 224 -96 224
WIRE 96 224 96 176
WIRE 96 224 16 224
WIRE 336 224 336 144
WIRE -160 304 -160 272
WIRE 592 304 592 256
FLAG 96 304 0
FLAG 560 -304 0
FLAG -496 -16 0
FLAG 96 -144 gate
FLAG -160 304 0
FLAG -160 32 V+
FLAG -32 -400 V+
FLAG -160 -32 0
FLAG 336 304 0
FLAG 592 304 0
SYMBOL res 80 208 R0
SYMATTR InstName R1
SYMATTR Value 37k
SYMBOL res 32 208 R90
WINDOW 0 0 56 VBottom 2
WINDOW 3 32 56 VTop 2
SYMATTR InstName R3
SYMATTR Value 100
SYMBOL voltage 560 -400 R0
WINDOW 123 0 0 Left 2
WINDOW 39 24 44 Left 2
SYMATTR SpiceLine Rser=0.0001
SYMATTR InstName V4
SYMATTR Value 5.5
SYMBOL voltage -496 -112 R0
WINDOW 3 -201 136 Left 2
WINDOW 123 0 0 Left 2
WINDOW 39 0 0 Left 2
SYMATTR Value PULSE(0 5 0 1n 1n 500u 1000u 1)
SYMATTR InstName V6
SYMBOL npn 32 80 R0
SYMATTR InstName Q5
SYMATTR Value 2N3904
SYMBOL pnp 32 -224 M180
SYMATTR InstName Q6
SYMATTR Value 2N3906
SYMBOL res -240 -112 R90
WINDOW 0 0 56 VBottom 2
WINDOW 3 32 56 VTop 2
SYMATTR InstName R7
SYMATTR Value 4.7k
SYMBOL npn -96 176 M0
SYMATTR InstName Q7
SYMATTR Value 2N3904
SYMBOL res -176 16 R0
SYMATTR InstName R2
SYMATTR Value 47k
SYMBOL res -144 -272 R180
WINDOW 0 36 76 Left 2
WINDOW 3 36 40 Left 2
SYMATTR InstName R4
SYMATTR Value 10k
SYMBOL npn -224 -144 R0
SYMATTR InstName Q8
SYMATTR Value 2N3904
SYMBOL res -176 -272 R0
SYMATTR InstName R5
SYMATTR Value 4.7k
SYMBOL res -224 -272 R180
WINDOW 0 36 76 Left 2
WINDOW 3 36 40 Left 2
SYMATTR InstName R8
SYMATTR Value 47k
SYMBOL SLG46127_PMOS 272 -144 R0
SYMATTR InstName U1
SYMBOL res 320 208 R0
SYMATTR InstName R6
SYMATTR Value 0.172
SYMBOL voltage 592 160 R0
WINDOW 123 0 0 Left 2
WINDOW 39 24 124 Left 2
SYMATTR InstName V1
SYMATTR Value {VC}
SYMBOL irfz44n 400 128 M0
SYMATTR InstName U2
TEXT -704 -264 Left 2 !;op
TEXT -704 -296 Left 2 !.tran 0 1.1m 0.1m 0.1u
TEXT -704 -328 Left 2 !.include sihfz44.lib
TEXT 552 -120 Left 2 !.temp +25
TEXT 384 376 Left 2 !.step param VC list 3.653 3.98 4.25
TEXT -704 -368 Left 2 !.include SLG46127_PMOS.lib
